pglib_opf_case2000_goc.m
%%%%%%%%%%%%%%%%%%%%%%%%%%%%%%%%%%%%%%%%%%%%%%%%%%%%%%%%%%%%%%%%%%%%%%%%%%%
%%%%                                                                  %%%%%
%%%%    IEEE PES Power Grid Library - Optimal Power Flow - v20.07     %%%%%
%%%%          (https://github.com/power-grid-lib/pglib-opf)           %%%%%
%%%%               Benchmark Group - Typical Operations               %%%%%
%%%%                         12 - July - 2020                         %%%%%
%%%%                                                                  %%%%%
%%%%%%%%%%%%%%%%%%%%%%%%%%%%%%%%%%%%%%%%%%%%%%%%%%%%%%%%%%%%%%%%%%%%%%%%%%%
%
%   This is a synthetic 2,000 bus case, developed for use in ARPA-e's Grid
%   Optimization Competition, Challenge 1.
%
%   https://gocompetition.energy.gov/challenges/22/datasets
%
%   When publishing results based on this data, please cite:
%
%   [1] A.B. Birchfield, T. Xu, K.M. Gegner, K.S. Shetye, T.J. Overbye,
%       "Grid Structural Characteristics as Validation Criteria for
%       Synthetic Networks," IEEE Transactions on Power Systems, 2017.
%
%   February, 2020
%
%   Copyright (c) 2020 by A.B. Birchfield, H. Li, J. Wert, J. Yeo, T. Xu,
%   and T.J. Overbye
%   Licensed under the Creative Commons Attribution 4.0 International license,
%   http://creativecommons.org/licenses/by/4.0/
%
function mpc = pglib_opf_case2000_goc
mpc.version = '2';
mpc.baseMVA = 100.0;

%% bus data
%	bus_i	type	Pd	Qd	Gs	Bs	area	Vm	Va	baseKV	zone	Vmax	Vmin
mpc.bus = [
	1	 1	 0.0	 0.0	 0.0	 0.0	 1	    1.00000	    0.00000	 138.0	 1	    1.10000	    0.90000;
	2	 1	 0.0	 0.0	 0.0	 0.0	 1	    1.00000	    0.00000	 69.0	 1	    1.10000	    0.90000;
	3	 1	 63.032599	 30.499177	 0.0	 0.0	 1	    1.00000	    0.00000	 138.0	 1	    1.10000	    0.90000;
	4	 1	 39.872692	 2.686688	 0.0	 0.0	 1	    1.00000	    0.00000	 69.0	 1	    1.10000	    0.90000;
	5	 1	 59.86117	 29.465619	 0.0	 0.0	 1	    1.00000	    0.00000	 69.0	 1	    1.10000	    0.90000;
	6	 1	 52.61757	 4.2656153	 0.0	 0.0	 1	    1.00000	    0.00000	 69.0	 1	    1.10000	    0.90000;
	7	 1	 56.669624	 12.18891	 0.0	 0.0	 1	    1.00000	    0.00000	 138.0	 1	    1.10000	    0.90000;
	8	 1	 39.112858	 10.233215	 0.0	 125.081972555	 1	    1.00000	    0.00000	 69.0	 1	    1.10000	    0.90000;
	9	 1	 0.0	 0.0	 0.0	 0.0	 1	    1.00000	    0.00000	 138.0	 1	    1.10000	    0.90000;
	10	 1	 0.0	 0.0	 0.0	 0.0	 1	    1.00000	    0.00000	 69.0	 1	    1.10000	    0.90000;
	11	 1	 88.082752	 28.939717	 0.0	 0.0	 1	    1.00000	    0.00000	 138.0	 1	    1.10000	    0.90000;
	12	 1	 0.0	 0.0	 0.0	 0.0	 1	    1.00000	    0.00000	 138.0	 1	    1.10000	    0.90000;
	13	 1	 82.616913	 17.693369	 0.0	 0.0	 1	    1.00000	    0.00000	 69.0	 1	    1.10000	    0.90000;
	14	 1	 0.0	 0.0	 0.0	 0.0	 1	    1.00000	    0.00000	 138.0	 1	    1.10000	    0.90000;
	15	 1	 124.08794	 60.300901	 0.0	 0.0	 1	    1.00000	    0.00000	 138.0	 1	    1.10000	    0.90000;
	16	 1	 58.164337	 11.289482	 0.0	 0.0	 1	    1.00000	    0.00000	 69.0	 1	    1.10000	    0.90000;
	17	 1	 45.635228	 27.013902	 0.0	 0.0	 1	    1.00000	    0.00000	 69.0	 1	    1.10000	    0.90000;
	18	 1	 0.0	 0.0	 0.0	 0.0	 1	    1.00000	    0.00000	 69.0	 1	    1.10000	    0.90000;
	19	 1	 16.253058	 1.8417025	 0.0	 0.0	 1	    1.00000	    0.00000	 69.0	 1	    1.10000	    0.90000;
	20	 1	 0.0	 0.0	 0.0	 0.0	 1	    1.00000	    0.00000	 138.0	 1	    1.10000	    0.90000;
	21	 1	 108.94234	 13.34786	 0.0	 0.0	 1	    1.00000	    0.00000	 69.0	 1	    1.10000	    0.90000;
	22	 1	 0.0	 0.0	 0.0	 0.0	 1	    1.00000	    0.00000	 138.0	 1	    1.10000	    0.90000;
	23	 1	 47.797985	 7.0533189	 0.0	 0.0	 1	    1.00000	    0.00000	 69.0	 1	    1.10000	    0.90000;
	24	 1	 13.259455	 2.933591	 0.0	 0.0	 1	    1.00000	    0.00000	 69.0	 1	    1.10000	    0.90000;
	25	 1	 16.010345	 1.912179	 0.0	 0.0	 1	    1.00000	    0.00000	 69.0	 1	    1.10000	    0.90000;
	26	 1	 0.0	 0.0	 0.0	 0.0	 1	    1.00000	    0.00000	 138.0	 1	    1.10000	    0.90000;
	27	 1	 60.234406	 15.982269	 0.0	 0.0	 1	    1.00000	    0.00000	 69.0	 1	    1.10000	    0.90000;
	28	 1	 0.0	 0.0	 0.0	 0.0	 1	    1.00000	    0.00000	 138.0	 1	    1.10000	    0.90000;
	29	 1	 79.633262	 31.091927	 0.0	 0.0	 1	    1.00000	    0.00000	 69.0	 1	    1.10000	    0.90000;
	30	 1	 59.447927	 1.3231653	 0.0	 0.0	 1	    1.00000	    0.00000	 138.0	 1	    1.10000	    0.90000;
	31	 1	 0.0	 0.0	 0.0	 0.0	 1	    1.00000	    0.00000	 138.0	 1	    1.10000	    0.90000;
	32	 1	 0.0	 0.0	 0.0	 0.0	 1	    1.00000	    0.00000	 69.0	 1	    1.10000	    0.90000;
	33	 1	 51.149767	 11.818091	 0.0	 0.0	 1	    1.00000	    0.00000	 138.0	 1	    1.10000	    0.90000;
	34	 1	 54.772259	 14.831048	 0.0	 0.0	 1	    1.00000	    0.00000	 138.0	 1	    1.10000	    0.90000;
	35	 1	 61.33575	 11.422704	 0.0	 0.0	 1	    1.00000	    0.00000	 69.0	 1	    1.10000	    0.90000;
	36	 1	 46.058696	 5.184763	 0.0	 0.0	 1	    1.00000	    0.00000	 69.0	 1	    1.10000	    0.90000;
	37	 1	 71.28723	 8.0567184	 0.0	 0.0	 1	    1.00000	    0.00000	 69.0	 1	    1.10000	    0.90000;
	38	 1	 20.498477	 5.1283346	 0.0	 0.0	 1	    1.00000	    0.00000	 69.0	 1	    1.10000	    0.90000;
	39	 1	 0.0	 0.0	 0.0	 0.0	 1	    1.00000	    0.00000	 138.0	 1	    1.10000	    0.90000;
	40	 1	 56.791513	 31.333153	 0.0	 0.0	 1	    1.00000	    0.00000	 69.0	 1	    1.10000	    0.90000;
	41	 1	 33.346278	 11.155067	 0.0	 0.0	 1	    1.00000	    0.00000	 69.0	 1	    1.10000	    0.90000;
	42	 1	 0.0	 0.0	 0.0	 0.0	 1	    1.00000	    0.00000	 138.0	 1	    1.10000	    0.90000;
	43	 1	 0.0	 0.0	 0.0	 0.0	 1	    1.00000	    0.00000	 69.0	 1	    1.10000	    0.90000;
	44	 1	 67.732614	 38.37608	 0.0	 0.0	 1	    1.00000	    0.00000	 138.0	 1	    1.10000	    0.90000;
	45	 1	 20.457976	 3.826255	 0.0	 0.0	 1	    1.00000	    0.00000	 69.0	 1	    1.10000	    0.90000;
	46	 1	 21.41017	 4.0268279	 0.0	 0.0	 1	    1.00000	    0.00000	 69.0	 1	    1.10000	    0.90000;
	47	 1	 0.0	 0.0	 0.0	 0.0	 1	    1.00000	    0.00000	 345.0	 1	    1.10000	    0.90000;
	48	 1	 0.0	 0.0	 0.0	 0.0	 1	    1.00000	    0.00000	 138.0	 1	    1.10000	    0.90000;
	49	 1	 0.0	 0.0	 0.0	 0.0	 1	    1.00000	    0.00000	 69.0	 1	    1.10000	    0.90000;
	50	 1	 42.770987	 18.207567	 0.0	 0.0	 1	    1.00000	    0.00000	 345.0	 1	    1.10000	    0.90000;
	51	 1	 26.867091	 13.887133	 0.0	 0.0	 1	    1.00000	    0.00000	 69.0	 1	    1.10000	    0.90000;
	52	 1	 0.0	 0.0	 0.0	 0.0	 1	    1.00000	    0.00000	 345.0	 1	    1.10000	    0.90000;
	53	 1	 0.0	 0.0	 0.0	 0.0	 1	    1.00000	    0.00000	 138.0	 1	    1.10000	    0.90000;
	54	 1	 65.431926	 21.104749	 0.0	 0.0	 1	    1.00000	    0.00000	 345.0	 1	    1.10000	    0.90000;
	55	 1	 0.0	 0.0	 0.0	 0.0	 1	    1.00000	    0.00000	 138.0	 1	    1.10000	    0.90000;
	56	 1	 0.0	 0.0	 0.0	 0.0	 1	    1.00000	    0.00000	 69.0	 1	    1.10000	    0.90000;
	57	 1	 39.42829	 2.9001465	 0.0	 0.0	 1	    1.00000	    0.00000	 138.0	 1	    1.10000	    0.90000;
	58	 1	 29.12641	 11.744102	 0.0	 0.0	 1	    1.00000	    0.00000	 69.0	 1	    1.10000	    0.90000;
	59	 1	 21.808205	 7.3975388	 0.0	 0.0	 1	    1.00000	    0.00000	 69.0	 1	    1.10000	    0.90000;
	60	 1	 16.084567	 0.5157274	 0.0	 0.0	 1	    1.00000	    0.00000	 69.0	 1	    1.10000	    0.90000;
	61	 1	 8.1954502	 2.4931054	 0.0	 0.0	 1	    1.00000	    0.00000	 69.0	 1	    1.10000	    0.90000;
	62	 1	 7.7017986	 4.9119172	 0.0	 0.0	 1	    1.00000	    0.00000	 69.0	 1	    1.10000	    0.90000;
	63	 1	 0.0	 0.0	 0.0	 0.0	 1	    1.00000	    0.00000	 138.0	 1	    1.10000	    0.90000;
	64	 1	 0.0	 0.0	 0.0	 0.0	 1	    1.00000	    0.00000	 69.0	 1	    1.10000	    0.90000;
	65	 1	 16.845318	 8.7799289	 0.0	 0.0	 1	    1.00000	    0.00000	 138.0	 1	    1.10000	    0.90000;
	66	 1	 7.8439512	 2.9993174	 0.0	 0.0	 1	    1.00000	    0.00000	 69.0	 1	    1.10000	    0.90000;
	67	 1	 0.0	 0.0	 0.0	 0.0	 1	    1.00000	    0.00000	 138.0	 1	    1.10000	    0.90000;
	68	 1	 0.0	 0.0	 0.0	 0.0	 1	    1.00000	    0.00000	 69.0	 1	    1.10000	    0.90000;
	69	 1	 9.5930041	 5.0816634	 0.0	 0.0	 1	    1.00000	    0.00000	 138.0	 1	    1.10000	    0.90000;
	70	 1	 7.3159881	 0.62437414	 0.0	 0.0	 1	    1.00000	    0.00000	 69.0	 1	    1.10000	    0.90000;
	71	 1	 0.0	 0.0	 0.0	 0.0	 1	    1.00000	    0.00000	 138.0	 1	    1.10000	    0.90000;
	72	 1	 12.029727	 4.0129322	 0.0	 0.0	 1	    1.00000	    0.00000	 69.0	 1	    1.10000	    0.90000;
	73	 1	 0.0	 0.0	 0.0	 0.0	 1	    1.00000	    0.00000	 138.0	 1	    1.10000	    0.90000;
	74	 1	 12.857525	 1.0586832	 0.0	 8.49688906785	 1	    1.00000	    0.00000	 69.0	 1	    1.10000	    0.90000;
	75	 1	 14.933717	 4.8782627	 0.0	 0.0	 1	    1.00000	    0.00000	 69.0	 1	    1.10000	    0.90000;
	76	 1	 0.0	 0.0	 0.0	 0.0	 1	    1.00000	    0.00000	 138.0	 1	    1.10000	    0.90000;
	77	 1	 0.0	 0.0	 0.0	 0.0	 1	    1.00000	    0.00000	 69.0	 1	    1.10000	    0.90000;
	78	 1	 26.426587	 4.6764255	 0.0	 0.0	 1	    1.00000	    0.00000	 138.0	 1	    1.10000	    0.90000;
	79	 1	 0.0	 0.0	 0.0	 0.0	 1	    1.00000	    0.00000	 138.0	 1	    1.10000	    0.90000;
	80	 1	 0.0	 0.0	 0.0	 0.0	 1	    1.00000	    0.00000	 69.0	 1	    1.10000	    0.90000;
	81	 1	 8.8550628	 1.6739562	 0.0	 0.0	 1	    1.00000	    0.00000	 138.0	 1	    1.10000	    0.90000;
	82	 1	 7.7923374	 0.51391182	 0.0	 0.0	 1	    1.00000	    0.00000	 69.0	 1	    1.10000	    0.90000;
	83	 1	 0.0	 0.0	 0.0	 0.0	 1	    1.00000	    0.00000	 138.0	 1	    1.10000	    0.90000;
	84	 1	 16.143781	 5.1892803	 0.0	 0.0	 1	    1.00000	    0.00000	 138.0	 1	    1.10000	    0.90000;
	85	 1	 0.0	 0.0	 0.0	 0.0	 1	    1.00000	    0.00000	 138.0	 1	    1.10000	    0.90000;
	86	 1	 0.0	 0.0	 0.0	 0.0	 1	    1.00000	    0.00000	 138.0	 1	    1.10000	    0.90000;
	87	 1	 0.0	 0.0	 0.0	 0.0	 1	    1.00000	    0.00000	 69.0	 1	    1.10000	    0.90000;
	88	 1	 52.386693	 12.736043	 0.0	 0.0	 1	    1.00000	    0.00000	 138.0	 1	    1.10000	    0.90000;
	89	 1	 0.0	 0.0	 0.0	 0.0	 1	    1.00000	    0.00000	 138.0	 1	    1.10000	    0.90000;
	90	 1	 0.0	 0.0	 0.0	 0.0	 1	    1.00000	    0.00000	 69.0	 1	    1.10000	    0.90000;
	91	 1	 63.939019	 10.266533	 0.0	 0.0	 1	    1.00000	    0.00000	 138.0	 1	    1.10000	    0.90000;
	92	 1	 29.053947	 14.045927	 0.0	 0.0	 1	    1.00000	    0.00000	 69.0	 1	    1.10000	    0.90000;
	93	 1	 18.532061	 4.3305549	 0.0	 13.0031149174	 1	    1.00000	    0.00000	 69.0	 1	    1.10000	    0.90000;
	94	 1	 19.487602	 3.2734475	 0.0	 0.0	 1	    1.00000	    0.00000	 69.0	 1	    1.10000	    0.90000;
	95	 1	 60.043064	 15.923783	 0.0	 0.00107396248384	 1	    1.00000	    0.00000	 69.0	 1	    1.10000	    0.90000;
	96	 1	 0.0	 0.0	 0.0	 0.0	 1	    1.00000	    0.00000	 345.0	 1	    1.10000	    0.90000;
	97	 1	 0.0	 0.0	 0.0	 0.0	 1	    1.00000	    0.00000	 138.0	 1	    1.10000	    0.90000;
	98	 1	 0.0	 0.0	 0.0	 0.0	 1	    1.00000	    0.00000	 69.0	 1	    1.10000	    0.90000;
	99	 1	 72.519598	 26.914313	 0.0	 0.0	 1	    1.00000	    0.00000	 138.0	 1	    1.10000	    0.90000;
	100	 1	 0.0	 0.0	 0.0	 0.0	 1	    1.00000	    0.00000	 138.0	 1	    1.10000	    0.90000;
	101	 1	 0.0	 0.0	 0.0	 0.0	 1	    1.00000	    0.00000	 69.0	 1	    1.10000	    0.90000;
	102	 1	 80.213195	 11.697076	 0.0	 0.0	 1	    1.00000	    0.00000	 138.0	 1	    1.10000	    0.90000;
	103	 1	 42.864125	 2.0052198	 0.0	 0.0	 1	    1.00000	    0.00000	 69.0	 1	    1.10000	    0.90000;
	104	 1	 59.503172	 21.216872	 0.0	 0.0	 1	    1.00000	    0.00000	 69.0	 1	    1.10000	    0.90000;
	105	 1	 0.0	 0.0	 0.0	 0.000699764345338	 1	    1.00000	    0.00000	 345.0	 1	    1.10000	    0.90000;
	106	 1	 0.0	 0.0	 0.0	 0.0	 1	    1.00000	    0.00000	 138.0	 1	    1.10000	    0.90000;
	107	 1	 0.0	 0.0	 0.0	 0.0	 1	    1.00000	    0.00000	 69.0	 1	    1.10000	    0.90000;
	108	 1	 78.973787	 26.897779	 0.0	 0.0	 1	    1.00000	    0.00000	 345.0	 1	    1.10000	    0.90000;
	109	 1	 42.500261	 11.215608	 0.0	 0.0	 1	    1.00000	    0.00000	 69.0	 1	    1.10000	    0.90000;
	110	 1	 0.0	 0.0	 0.0	 0.0	 1	    1.00000	    0.00000	 138.0	 1	    1.10000	    0.90000;
	111	 1	 0.0	 0.0	 0.0	 0.0	 1	    1.00000	    0.00000	 69.0	 1	    1.10000	    0.90000;
	112	 1	 70.32463	 16.641277	 0.0	 0.0	 1	    1.00000	    0.00000	 138.0	 1	    1.10000	    0.90000;
	113	 1	 44.282331	 5.1595078	 0.0	 0.0	 1	    1.00000	    0.00000	 69.0	 1	    1.10000	    0.90000;
	114	 1	 6.6539341	 1.858247	 0.0	 -19.5770110823	 1	    1.00000	    0.00000	 69.0	 1	    1.10000	    0.90000;
	115	 1	 38.288963	 16.397994	 0.0	 0.0	 1	    1.00000	    0.00000	 69.0	 1	    1.10000	    0.90000;
	116	 1	 14.043978	 3.0853286	 0.0	 0.0	 1	    1.00000	    0.00000	 69.0	 1	    1.10000	    0.90000;
	117	 1	 33.648509	 1.2250378	 0.0	 0.0	 1	    1.00000	    0.00000	 69.0	 1	    1.10000	    0.90000;
	118	 1	 14.131552	 3.2964995	 0.0	 0.0	 1	    1.00000	    0.00000	 69.0	 1	    1.10000	    0.90000;
	119	 1	 42.68915	 11.775552	 0.0	 0.0	 1	    1.00000	    0.00000	 69.0	 1	    1.10000	    0.90000;
	120	 1	 63.129219	 43.045801	 0.0	 0.0	 1	    1.00000	    0.00000	 69.0	 1	    1.10000	    0.90000;
	121	 1	 0.0	 0.0	 0.0	 0.0	 1	    1.00000	    0.00000	 138.0	 1	    1.10000	    0.90000;
	122	 1	 0.0	 0.0	 0.0	 0.0	 1	    1.00000	    0.00000	 69.0	 1	    1.10000	    0.90000;
	123	 1	 77.38747	 23.99223	 0.0	 0.0	 1	    1.00000	    0.00000	 138.0	 1	    1.10000	    0.90000;
	124	 1	 0.0	 0.0	 0.0	 0.0	 1	    1.00000	    0.00000	 138.0	 1	    1.10000	    0.90000;
	125	 1	 0.0	 0.0	 0.0	 0.0	 1	    1.00000	    0.00000	 69.0	 1	    1.10000	    0.90000;
	126	 1	 50.036685	 18.8862	 0.0	 0.0	 1	    1.00000	    0.00000	 138.0	 1	    1.10000	    0.90000;
	127	 1	 25.701199	 6.4513541	 0.0	 0.0	 1	    1.00000	    0.00000	 69.0	 1	    1.10000	    0.90000;
	128	 1	 31.024184	 7.4663783	 0.0	 0.000271209085663	 1	    1.00000	    0.00000	 69.0	 1	    1.10000	    0.90000;
	129	 1	 0.0	 0.0	 0.0	 0.0	 1	    1.00000	    0.00000	 69.0	 1	    1.10000	    0.90000;
	130	 1	 73.035237	 12.276959	 0.0	 0.0	 1	    1.00000	    0.00000	 69.0	 1	    1.10000	    0.90000;
	131	 1	 41.142072	 21.889228	 0.0	 168.570002396	 1	    1.00000	    0.00000	 69.0	 1	    1.10000	    0.90000;
	132	 1	 0.0	 0.0	 0.0	 0.0	 1	    1.00000	    0.00000	 138.0	 1	    1.10000	    0.90000;
	133	 1	 70.971277	 13.03429	 0.0	 0.0	 1	    1.00000	    0.00000	 69.0	 1	    1.10000	    0.90000;
	134	 1	 0.0	 0.0	 0.0	 0.0	 1	    1.00000	    0.00000	 138.0	 1	    1.10000	    0.90000;
	135	 1	 0.0	 0.0	 0.0	 0.0	 1	    1.00000	    0.00000	 138.0	 1	    1.10000	    0.90000;
	136	 1	 0.0	 0.0	 0.0	 0.0	 1	    1.00000	    0.00000	 69.0	 1	    1.10000	    0.90000;
	137	 1	 135.163	 17.105692	 0.0	 0.0	 1	    1.00000	    0.00000	 138.0	 1	    1.10000	    0.90000;
	138	 1	 43.01499	 5.0493889	 0.0	 0.0	 1	    1.00000	    0.00000	 69.0	 1	    1.10000	    0.90000;
	139	 1	 0.0	 0.0	 0.0	 0.0	 1	    1.00000	    0.00000	 138.0	 1	    1.10000	    0.90000;
	140	 1	 97.888643	 58.600837	 0.0	 0.0	 1	    1.00000	    0.00000	 69.0	 1	    1.10000	    0.90000;
	141	 1	 0.0	 0.0	 0.0	 0.0	 1	    1.00000	    0.00000	 138.0	 1	    1.10000	    0.90000;
	142	 1	 0.0	 0.0	 0.0	 0.0	 1	    1.00000	    0.00000	 138.0	 1	    1.10000	    0.90000;
	143	 1	 0.0	 0.0	 0.0	 0.0	 1	    1.00000	    0.00000	 69.0	 1	    1.10000	    0.90000;
	144	 1	 80.88225	 15.434356	 0.0	 0.0	 1	    1.00000	    0.00000	 138.0	 1	    1.10000	    0.90000;
	145	 1	 45.810324	 5.309578	 0.0	 0.0	 1	    1.00000	    0.00000	 69.0	 1	    1.10000	    0.90000;
	146	 1	 39.973054	 8.7672214	 0.0	 0.0	 1	    1.00000	    0.00000	 69.0	 1	    1.10000	    0.90000;
	147	 1	 0.0	 0.0	 0.0	 0.0	 1	    1.00000	    0.00000	 138.0	 1	    1.10000	    0.90000;
	148	 1	 0.0	 0.0	 0.0	 0.0	 1	    1.00000	    0.00000	 69.0	 1	    1.10000	    0.90000;
	149	 1	 69.114811	 16.155095	 0.0	 0.0	 1	    1.00000	    0.00000	 138.0	 1	    1.10000	    0.90000;
	150	 1	 50.329488	 6.2763458	 0.0	 0.0	 1	    1.00000	    0.00000	 69.0	 1	    1.10000	    0.90000;
	151	 1	 0.0	 0.0	 0.0	 0.0	 1	    1.00000	    0.00000	 138.0	 1	    1.10000	    0.90000;
	152	 1	 0.0	 0.0	 0.0	 0.0	 1	    1.00000	    0.00000	 69.0	 1	    1.10000	    0.90000;
	153	 1	 54.464316	 6.3389867	 0.0	 0.0	 1	    1.00000	    0.00000	 138.0	 1	    1.10000	    0.90000;
	154	 1	 76.293089	 16.102405	 0.0	 0.0	 1	    1.00000	    0.00000	 69.0	 1	    1.10000	    0.90000;
	155	 1	 48.138363	 2.1361487	 0.0	 0.0	 1	    1.00000	    0.00000	 69.0	 1	    1.10000	    0.90000;
	156	 1	 48.095052	 21.38875	 0.0	 0.0	 1	    1.00000	    0.00000	 69.0	 1	    1.10000	    0.90000;
	157	 1	 45.6242	 11.938822	 0.0	 0.0	 1	    1.00000	    0.00000	 138.0	 1	    1.10000	    0.90000;
	158	 1	 71.854584	 17.031862	 0.0	 0.0	 1	    1.00000	    0.00000	 138.0	 1	    1.10000	    0.90000;
	159	 1	 0.0	 0.0	 0.0	 371.14047516	 1	    1.00000	    0.00000	 345.0	 1	    1.10000	    0.90000;
	160	 1	 0.0	 0.0	 0.0	 0.0	 1	    1.00000	    0.00000	 138.0	 1	    1.10000	    0.90000;
	161	 1	 0.0	 0.0	 0.0	 0.0	 1	    1.00000	    0.00000	 69.0	 1	    1.10000	    0.90000;
	162	 1	 71.133321	 10.304815	 0.0	 0.0	 1	    1.00000	    0.00000	 138.0	 1	    1.10000	    0.90000;
	163	 1	 42.982584	 10.440698	 0.0	 0.0	 1	    1.00000	    0.00000	 69.0	 1	    1.10000	    0.90000;
	164	 1	 27.968725	 7.4335923	 0.0	 0.0	 1	    1.00000	    0.00000	 69.0	 1	    1.10000	    0.90000;
	165	 1	 0.0	 0.0	 0.0	 0.0	 1	    1.00000	    0.00000	 138.0	 1	    1.10000	    0.90000;
	166	 1	 0.0	 0.0	 0.0	 0.0	 1	    1.00000	    0.00000	 69.0	 1	    1.10000	    0.90000;
	167	 1	 136.34574	 82.948765	 0.0	 0.0	 1	    1.00000	    0.00000	 138.0	 1	    1.10000	    0.90000;
	168	 1	 25.153536	 4.7858244	 0.0	 0.0	 1	    1.00000	    0.00000	 69.0	 1	    1.10000	    0.90000;
	169	 1	 48.057962	 12.787909	 0.0	 27.4224213741	 1	    1.00000	    0.00000	 69.0	 1	    1.10000	    0.90000;
	170	 1	 0.0	 0.0	 0.0	 0.0	 1	    1.00000	    0.00000	 138.0	 1	    1.10000	    0.90000;
	171	 1	 0.0	 0.0	 0.0	 0.0	 1	    1.00000	    0.00000	 69.0	 1	    1.10000	    0.90000;
	172	 1	 64.99125	 15.347642	 0.0	 0.0	 1	    1.00000	    0.00000	 138.0	 1	    1.10000	    0.90000;
	173	 1	 49.812493	 25.789267	 0.0	 61.4828684306	 1	    1.00000	    0.00000	 69.0	 1	    1.10000	    0.90000;
	174	 1	 0.0	 0.0	 0.0	 0.0	 1	    1.00000	    0.00000	 138.0	 1	    1.10000	    0.90000;
	175	 1	 0.0	 0.0	 0.0	 0.0	 1	    1.00000	    0.00000	 69.0	 1	    1.10000	    0.90000;
	176	 1	 67.457252	 7.9139351	 0.0	 0.0	 1	    1.00000	    0.00000	 138.0	 1	    1.10000	    0.90000;
	177	 1	 32.640671	 8.9909054	 0.0	 60.0971715131	 1	    1.00000	    0.00000	 69.0	 1	    1.10000	    0.90000;
	178	 1	 21.471577	 4.7353379	 0.0	 41.5651119656	 1	    1.00000	    0.00000	 69.0	 1	    1.10000	    0.90000;
	179	 1	 43.099563	 5.0539475	 0.0	 0.0	 1	    1.00000	    0.00000	 69.0	 1	    1.10000	    0.90000;
	180	 1	 29.859917	 4.3108127	 0.0	 0.0	 1	    1.00000	    0.00000	 69.0	 1	    1.10000	    0.90000;
	181	 1	 0.0	 0.0	 0.0	 0.0	 1	    1.00000	    0.00000	 138.0	 1	    1.10000	    0.90000;
	182	 1	 0.0	 0.0	 0.0	 0.0	 1	    1.00000	    0.00000	 69.0	 1	    1.10000	    0.90000;
	183	 1	 74.524277	 17.467453	 0.0	 0.0	 1	    1.00000	    0.00000	 138.0	 1	    1.10000	    0.90000;
	184	 1	 38.357391	 2.7000183	 0.0	 0.0	 1	    1.00000	    0.00000	 69.0	 1	    1.10000	    0.90000;
	185	 1	 27.52708	 4.7391381	 0.0	 0.0	 1	    1.00000	    0.00000	 69.0	 1	    1.10000	    0.90000;
	186	 1	 35.411356	 8.3667711	 0.0	 -63.3799211635	 1	    1.00000	    0.00000	 69.0	 1	    1.10000	    0.90000;
	187	 1	 33.45286	 10.163847	 0.0	 0.0	 1	    1.00000	    0.00000	 69.0	 1	    1.10000	    0.90000;
	188	 1	 0.0	 0.0	 0.0	 0.0	 1	    1.00000	    0.00000	 138.0	 1	    1.10000	    0.90000;
	189	 1	 0.0	 0.0	 0.0	 0.0	 1	    1.00000	    0.00000	 69.0	 1	    1.10000	    0.90000;
	190	 1	 54.302808	 12.182942	 0.0	 0.0	 1	    1.00000	    0.00000	 138.0	 1	    1.10000	    0.90000;
	191	 1	 0.0	 0.0	 0.0	 0.0	 1	    1.00000	    0.00000	 138.0	 1	    1.10000	    0.90000;
	192	 1	 50.603533	 21.904329	 0.0	 0.0	 1	    1.00000	    0.00000	 69.0	 1	    1.10000	    0.90000;
	193	 1	 0.0	 0.0	 0.0	 0.0	 1	    1.00000	    0.00000	 138.0	 1	    1.10000	    0.90000;
	194	 1	 0.0	 0.0	 0.0	 0.0	 1	    1.00000	    0.00000	 138.0	 1	    1.10000	    0.90000;
	195	 1	 0.0	 0.0	 0.0	 0.0	 1	    1.00000	    0.00000	 69.0	 1	    1.10000	    0.90000;
	196	 1	 46.960527	 7.8248051	 0.0	 0.0	 1	    1.00000	    0.00000	 138.0	 1	    1.10000	    0.90000;
	197	 1	 39.102226	 8.7138343	 0.0	 0.0	 1	    1.00000	    0.00000	 69.0	 1	    1.10000	    0.90000;
	198	 1	 0.0	 0.0	 0.0	 0.0	 1	    1.00000	    0.00000	 69.0	 1	    1.10000	    0.90000;
	199	 1	 28.057407	 3.7781352	 0.0	 0.000175080156541	 1	    1.00000	    0.00000	 69.0	 1	    1.10000	    0.90000;
	200	 1	 35.117549	 13.890588	 0.0	 0.0	 1	    1.00000	    0.00000	 69.0	 1	    1.10000	    0.90000;
...
];

%% generator data
%	bus	Pg	Qg	Qmax	Qmin	Vg	mBase	status	Pmax	Pmin
mpc.gen = [
	511	 199.3925	 57.0965	 146.041	 -31.848	 1.0	 286.92	 1	 286.917	 111.868;
	512	 211.815	 57.0965	 146.041	 -31.848	 1.0	 286.92	 1	 286.917	 136.713;
	513	 202.3985	 57.0965	 146.041	 -31.848	 1.0	 286.92	 1	 286.917	 117.88;
	514	 203.4165	 57.0965	 146.041	 -31.848	 1.0	 286.92	 1	 286.917	 119.916;
	515	 215.024	 57.0965	 146.041	 -31.848	 1.0	 286.92	 1	 286.917	 143.131;
	516	 176.202	 57.0965	 146.041	 -31.848	 1.0	 286.92	 1	 286.917	 65.487;
	518	 17.532	 5.273	 13.488	 -2.942	 1.0	 26.5	 1	 26.5	 8.564;
	522	 605.927	 117.06	 301.245	 -67.125	 1.0	 818.6	 1	 818.6	 393.254;
	523	 455.499	 117.06	 301.245	 -67.125	 1.0	 818.6	 1	 818.6	 92.398;
	525	 0.0	 0.0	 3.02	 -0.659	 1.0	 5.93	 0	 5.933	 1.3;
	525	 0.0	 0.0	 3.02	 -0.659	 1.0	 5.93	 0	 5.933	 1.833;
	525	 0.0	 0.0	 3.02	 -0.659	 1.0	 5.93	 0	 5.933	 2.076;
	525	 0.0	 0.0	 3.02	 -0.659	 1.0	 5.93	 0	 5.933	 1.712;
	525	 0.0	 0.0	 3.02	 -0.659	 1.0	 5.93	 0	 5.933	 1.58;
	525	 0.0	 0.0	 3.02	 -0.659	 1.0	 5.93	 0	 5.933	 1.676;
	529	 0.0	 0.0	 124.603	 -27.173	 1.0	 244.8	 0	 244.8	 40.619;
	530	 147.451	 48.715	 124.603	 -27.173	 1.0	 244.8	 1	 244.8	 50.102;
	531	 174.0605	 48.715	 124.603	 -27.173	 1.0	 244.8	 1	 244.8	 103.321;
	532	 168.6685	 48.715	 124.603	 -27.173	 1.0	 244.8	 1	 244.8	 92.537;
	533	 163.709	 48.715	 124.603	 -27.173	 1.0	 244.8	 1	 244.8	 82.618;
	536	 276.28	 69.144	 187.332	 -49.044	 1.0	 402.0	 1	 402.0	 150.56;
	537	 286.569	 69.144	 187.332	 -49.044	 1.0	 402.0	 1	 402.0	 171.138;
	539	 2.051	 0.631	 1.709	 -0.447	 1.0	 3.67	 1	 3.667	 0.435;
	539	 2.4735	 0.631	 1.709	 -0.447	 1.0	 3.67	 1	 3.667	 1.28;
	539	 2.742	 0.631	 1.709	 -0.447	 1.0	 3.67	 1	 3.667	 1.817;
	539	 2.283	 0.631	 1.709	 -0.447	 1.0	 3.67	 1	 3.667	 0.899;
	539	 0.0	 0.0	 1.709	 -0.447	 1.0	 3.67	 0	 3.667	 1.289;
	539	 0.0	 0.0	 1.709	 -0.447	 1.0	 3.67	 0	 3.667	 1.159;
	542	 0.0	 0.0	 88.43	 -19.284	 1.0	 173.73	 0	 173.733	 56.291;
	543	 111.8905	 34.573	 88.43	 -19.284	 1.0	 173.73	 1	 173.733	 50.048;
	544	 127.1945	 34.573	 88.43	 -19.284	 1.0	 173.73	 1	 173.733	 80.656;
	545	 0.0	 0.0	 88.43	 -19.284	 1.0	 173.73	 0	 173.733	 73.088;
	546	 116.4245	 34.573	 88.43	 -19.284	 1.0	 173.73	 1	 173.733	 59.116;
	547	 111.503	 34.573	 88.43	 -19.284	 1.0	 173.73	 1	 173.733	 49.273;
	551	 624.0895	 154.44	 397.44	 -88.56	 1.0	 1080.0	 1	 1080.0	 168.179;
	552	 626.361	 154.44	 397.44	 -88.56	 1.0	 1080.0	 1	 1080.0	 172.722;
	554	 49.9325	 13.612	 34.816	 -7.592	 1.0	 68.4	 1	 68.4	 31.465;
	554	 43.5455	 13.612	 34.816	 -7.592	 1.0	 68.4	 1	 68.4	 18.691;
	554	 43.997	 13.612	 34.816	 -7.592	 1.0	 68.4	 1	 68.4	 19.594;
	554	 48.079	 13.612	 34.816	 -7.592	 1.0	 68.4	 1	 68.4	 27.758;
	554	 0.0	 0.0	 34.816	 -7.592	 1.0	 68.4	 0	 68.4	 26.86;
	554	 41.136	 13.612	 34.816	 -7.592	 1.0	 68.4	 1	 68.4	 13.872;
	558	 75.428	 27.223	 69.631	 -15.185	 1.0	 136.8	 1	 136.8	 14.056;
	559	 0.0	 0.0	 69.631	 -15.185	 1.0	 136.8	 0	 136.8	 64.405;
	560	 0.0	 0.0	 69.631	 -15.185	 1.0	 136.8	 0	 136.8	 41.032;
	561	 82.724	 27.223	 69.631	 -15.185	 1.0	 136.8	 1	 136.8	 28.648;
	562	 78.8815	 27.223	 69.631	 -15.185	 1.0	 136.8	 1	 136.8	 20.963;
	563	 86.6705	 27.223	 69.631	 -15.185	 1.0	 136.8	 1	 136.8	 36.541;
	567	 461.7685	 141.39	 361.645	 -78.865	 1.0	 710.5	 1	 710.5	 213.037;
	568	 419.9705	 141.39	 361.645	 -78.865	 1.0	 710.5	 1	 710.5	 129.441;
	569	 523.346	 141.39	 361.645	 -78.865	 1.0	 710.5	 1	 710.5	 336.192;
	570	 393.325	 141.39	 361.645	 -78.865	 1.0	 710.5	 1	 710.5	 76.15;
	571	 0.0	 0.0	 361.645	 -78.865	 1.0	 710.5	 0	 710.5	 73.471;
	572	 0.0	 0.0	 361.645	 -78.865	 1.0	 710.5	 0	 710.5	 216.649;
	574	 0.0	 0.0	 57.784	 -15.128	 1.0	 124.0	 0	 124.0	 57.005;
	575	 85.8	 21.328	 57.784	 -15.128	 1.0	 124.0	 1	 124.0	 47.6;
	576	 87.0925	 21.328	 57.784	 -15.128	 1.0	 124.0	 1	 124.0	 50.185;
	577	 68.35	 21.328	 57.784	 -15.128	 1.0	 124.0	 1	 124.0	 12.7;
	578	 70.853	 21.328	 57.784	 -15.128	 1.0	 124.0	 1	 124.0	 17.706;
	579	 0.0	 0.0	 57.784	 -15.128	 1.0	 124.0	 0	 124.0	 36.442;
	581	 13.283	 3.6265	 9.825	 -2.572	 1.0	 21.08	 1	 21.083	 5.483;
	582	 13.656	 3.6265	 9.825	 -2.572	 1.0	 21.08	 1	 21.083	 6.229;
	582	 13.6685	 3.6265	 9.825	 -2.572	 1.0	 21.08	 1	 21.083	 6.254;
	582	 0.0	 0.0	 9.825	 -2.572	 1.0	 21.08	 0	 21.083	 7.482;
	582	 12.7	 3.6265	 9.825	 -2.572	 1.0	 21.08	 1	 21.083	 4.317;
	582	 0.0	 0.0	 9.825	 -2.572	 1.0	 21.08	 0	 21.083	 7.684;
	587	 119.022	 36.019	 92.129	 -20.091	 1.0	 181.0	 1	 181.0	 57.044;
	588	 123.0775	 36.019	 92.129	 -20.091	 1.0	 181.0	 1	 181.0	 65.155;
	590	 8.913	 3.124	 7.991	 -1.743	 1.0	 15.7	 1	 15.7	 2.126;
	590	 10.352	 3.124	 7.991	 -1.743	 1.0	 15.7	 1	 15.7	 5.004;
	594	 233.1585	 64.4265	 164.789	 -35.936	 1.0	 323.75	 1	 323.75	 142.567;
	595	 0.0	 0.0	 164.789	 -35.936	 1.0	 323.75	 0	 323.75	 54.778;
	596	 235.478	 64.4265	 164.789	 -35.936	 1.0	 323.75	 1	 323.75	 147.206;
	597	 185.277	 64.4265	 164.789	 -35.936	 1.0	 323.75	 1	 323.75	 46.804;
	599	 0.0	 0.0	 3.169	 -0.83	 1.0	 6.8	 0	 6.8	 3.324;
	599	 0.0	 0.0	 3.169	 -0.83	 1.0	 6.8	 0	 6.8	 0.698;
	599	 0.0	 0.0	 3.169	 -0.83	 1.0	 6.8	 0	 6.8	 0.905;
	599	 0.0	 0.0	 3.169	 -0.83	 1.0	 6.8	 0	 6.8	 1.101;
	599	 0.0	 0.0	 3.169	 -0.83	 1.0	 6.8	 0	 6.8	 3.201;
	599	 0.0	 0.0	 3.169	 -0.83	 1.0	 6.8	 0	 6.8	 2.569;
	1208	 0.0	 0.0	 5.701	 -1.243	 1.0	 11.2	 0	 11.2	 2.558;
	1208	 0.0	 0.0	 5.701	 -1.243	 1.0	 11.2	 0	 11.2	 3.605;
	1212	 91.7425	 28.357	 72.532	 -15.818	 1.0	 142.5	 1	 142.5	 40.985;
	1213	 0.0	 0.0	 72.532	 -15.818	 1.0	 142.5	 0	 142.5	 55.372;
	1214	 86.6565	 28.357	 72.532	 -15.818	 1.0	 142.5	 1	 142.5	 30.813;
	1216	 57.1245	 17.313	 44.283	 -9.657	 1.0	 87.0	 1	 87.0	 27.249;
	1216	 52.097	 17.313	 44.283	 -9.657	 1.0	 87.0	 1	 87.0	 17.194;
	1219	 56.0685	 14.4825	 39.237	 -10.272	 1.0	 84.2	 1	 84.2	 27.937;
	1219	 46.75	 14.4825	 39.237	 -10.272	 1.0	 84.2	 1	 84.2	 9.3;
	1219	 47.4475	 14.4825	 39.237	 -10.272	 1.0	 84.2	 1	 84.2	 10.695;
	1219	 53.92	 14.4825	 39.237	 -10.272	 1.0	 84.2	 1	 84.2	 23.64;
	1219	 56.779	 14.4825	 39.237	 -10.272	 1.0	 84.2	 1	 84.2	 29.358;
	1219	 55.1095	 14.4825	 39.237	 -10.272	 1.0	 84.2	 1	 84.2	 26.019;
	1226	 0.0	 0.0	 101.23	 -22.076	 1.0	 198.88	 0	 198.88	 47.086;
	1227	 127.5005	 39.577	 101.23	 -22.076	 1.0	 198.88	 1	 198.88	 56.121;
	1228	 130.3675	 39.577	 101.23	 -22.076	 1.0	 198.88	 1	 198.88	 61.855;
	1229	 135.5645	 39.577	 101.23	 -22.076	 1.0	 198.88	 1	 198.88	 72.249;
	1230	 0.0	 0.0	 101.23	 -22.076	 1.0	 198.88	 0	 198.88	 76.895;
	1232	 0.0	 0.0	 2.723	 -0.594	 1.0	 5.35	 0	 5.35	 2.222;
	1233	 0.0	 0.0	 2.723	 -0.594	 1.0	 5.35	 0	 5.35	 2.517;
	1237	 129.6835	 40.934	 104.701	 -22.833	 1.0	 205.7	 1	 205.7	 53.667;
	1238	 0.0	 0.0	 104.701	 -22.833	 1.0	 205.7	 0	 205.7	 30.887;
	1243	 145.9405	 39.681	 101.495	 -22.133	 1.0	 199.4	 1	 199.4	 92.481;
	1244	 123.285	 39.681	 101.495	 -22.133	 1.0	 199.4	 1	 199.4	 47.17;
	1246	 0.0	 0.0	 21.378	 -4.662	 1.0	 42.0	 0	 42.0	 17.993;
	1251	 99.6825	 35.9	 91.824	 -20.024	 1.0	 180.4	 1	 180.4	 18.965;
	1252	 104.498	 35.9	 91.824	 -20.024	 1.0	 180.4	 1	 180.4	 28.596;
	1253	 0.0	 0.0	 91.824	 -20.024	 1.0	 180.4	 0	 180.4	 62.389;
	1256	 210.1575	 66.811	 170.888	 -37.266	 1.0	 335.73	 1	 335.733	 84.582;
	1257	 0.0	 0.0	 170.888	 -37.266	 1.0	 335.73	 0	 335.733	 129.272;
	1258	 195.9485	 66.811	 170.888	 -37.266	 1.0	 335.73	 1	 335.733	 56.164;
	1259	 203.09	 66.811	 170.888	 -37.266	 1.0	 335.73	 1	 335.733	 70.447;
	1260	 0.0	 0.0	 170.888	 -37.266	 1.0	 335.73	 0	 335.733	 47.366;
	1261	 208.251	 66.811	 170.888	 -37.266	 1.0	 335.73	 1	 335.733	 80.769;
	1262	 0.0	 0.0	 0.865	 -0.189	 1.0	 1.7	 0	 1.7	 0.215;
	1266	 0.0	 0.0	 216.457	 -56.669	 1.0	 464.5	 0	 464.5	 117.172;
	1267	 0.0	 0.0	 216.457	 -56.669	 1.0	 464.5	 0	 464.5	 81.768;
	1271	 132.243	 36.218	 92.638	 -20.202	 1.0	 182.0	 1	 182.0	 82.486;
	1272	 130.3275	 36.218	 92.638	 -20.202	 1.0	 182.0	 1	 182.0	 78.655;
	1273	 111.3065	 36.218	 92.638	 -20.202	 1.0	 182.0	 1	 182.0	 40.613;
	1274	 124.9885	 36.218	 92.638	 -20.202	 1.0	 182.0	 1	 182.0	 67.977;
	1277	 0.0	 0.0	 23.176	 -5.054	 1.0	 45.53	 0	 45.533	 22.712;
	1277	 0.0	 0.0	 23.176	 -5.054	 1.0	 45.53	 0	 45.533	 4.714;
	1277	 0.0	 0.0	 23.176	 -5.054	 1.0	 45.53	 0	 45.533	 8.36;
	1281	 144.997	 49.869	 127.555	 -27.817	 1.0	 250.6	 1	 250.6	 39.394;
	1282	 170.8875	 49.869	 127.555	 -27.817	 1.0	 250.6	 1	 250.6	 91.175;
	1283	 0.0	 0.0	 127.555	 -27.817	 1.0	 250.6	 0	 250.6	 104.51;
	1284	 186.507	 49.869	 127.555	 -27.817	 1.0	 250.6	 1	 250.6	 122.414;
	1285	 155.499	 49.869	 127.555	 -27.817	 1.0	 250.6	 1	 250.6	 60.398;
	1289	 0.0	 0.0	 109.299	 -23.835	 1.0	 214.73	 0	 214.733	 106.491;
	1290	 0.0	 0.0	 109.299	 -23.835	 1.0	 214.73	 0	 214.733	 100.357;
	1291	 142.397	 42.732	 109.299	 -23.835	 1.0	 214.73	 1	 214.733	 70.061;
	1295	 224.2795	 64.4265	 164.789	 -35.936	 1.0	 323.75	 1	 323.75	 124.809;
	1296	 241.37	 64.4265	 164.789	 -35.936	 1.0	 323.75	 1	 323.75	 158.99;
	1297	 222.095	 64.4265	 164.789	 -35.936	 1.0	 323.75	 1	 323.75	 120.44;
	1298	 230.6285	 64.4265	 164.789	 -35.936	 1.0	 323.75	 1	 323.75	 137.507;
	1300	 0.0	 0.0	 1.476	 -0.322	 1.0	 2.9	 0	 2.9	 1.047;
	1300	 50.0395	 13.91	 35.579	 -7.759	 1.0	 69.9	 1	 69.9	 30.179;
	1300	 48.9705	 13.91	 35.579	 -7.759	 1.0	 69.9	 1	 69.9	 28.041;
	1300	 40.167	 13.91	 35.579	 -7.759	 1.0	 69.9	 1	 69.9	 10.434;
	1300	 46.6465	 13.91	 35.579	 -7.759	 1.0	 69.9	 1	 69.9	 23.393;
	1301	 0.0	 0.0	 1.476	 -0.322	 1.0	 2.9	 0	 2.9	 0.497;
	1303	 137.322	 45.6575	 116.782	 -25.467	 1.0	 229.43	 1	 229.433	 45.211;
	1303	 0.0	 0.0	 116.782	 -25.467	 1.0	 229.43	 0	 229.433	 51.807;
	1303	 158.8135	 45.6575	 116.782	 -25.467	 1.0	 229.43	 1	 229.433	 88.194;
	1308	 0.0	 0.0	 89.482	 -19.514	 1.0	 175.8	 0	 175.8	 61.666;
	1309	 111.237	 34.984	 89.482	 -19.514	 1.0	 175.8	 1	 175.8	 46.674;
	1310	 125.8785	 34.984	 89.482	 -19.514	 1.0	 175.8	 1	 175.8	 75.957;
	1311	 0.0	 0.0	 89.482	 -19.514	 1.0	 175.8	 0	 175.8	 23.848;
	1313	 0.79	 0.2065	 0.559	 -0.146	 1.0	 1.2	 1	 1.2	 0.38;
	1313	 0.0	 0.0	 3.883	 -1.017	 1.0	 8.33	 0	 8.333	 1.146;
	1313	 0.809	 0.2065	 0.559	 -0.146	 1.0	 1.2	 1	 1.2	 0.418;
	1313	 1.4495	 0.43	 1.165	 -0.305	 1.0	 2.5	 1	 2.5	 0.399;
	1313	 1.5575	 0.43	 1.165	 -0.305	 1.0	 2.5	 1	 2.5	 0.615;
	1313	 0.0	 0.0	 3.883	 -1.017	 1.0	 8.33	 0	 8.333	 2.53;
	1313	 0.0	 0.0	 3.883	 -1.017	 1.0	 8.33	 0	 8.333	 2.739;
	1313	 5.963	 1.433	 3.883	 -1.017	 1.0	 8.33	 1	 8.333	 3.593;
	1313	 5.5175	 1.433	 3.883	 -1.017	 1.0	 8.33	 1	 8.333	 2.702;
	1313	 0.0	 0.0	 3.883	 -1.017	 1.0	 8.33	 0	 8.333	 3.708;
	1318	 122.399	 39.8	 101.8	 -22.2	 1.0	 200.0	 1	 200.0	 44.798;
	1319	 140.125	 39.8	 101.8	 -22.2	 1.0	 200.0	 1	 200.0	 80.25;
	1320	 131.923	 39.8	 101.8	 -22.2	 1.0	 200.0	 1	 200.0	 63.846;
	1325	 564.028	 160.734	 435.477	 -114.009	 1.0	 934.5	 1	 934.5	 193.556;
	1326	 658.5845	 160.734	 435.477	 -114.009	 1.0	 934.5	 1	 934.5	 382.669;
	1328	 31.719	 9.7525	 26.422	 -6.917	 1.0	 56.7	 1	 56.7	 6.738;
	1328	 33.4295	 9.7525	 26.422	 -6.917	 1.0	 56.7	 1	 56.7	 10.159;
	1328	 37.3085	 9.7525	 26.422	 -6.917	 1.0	 56.7	 1	 56.7	 17.917;
	1328	 36.575	 9.7525	 26.422	 -6.917	 1.0	 56.7	 1	 56.7	 16.45;
	1330	 48.1835	 17.114	 43.774	 -9.546	 1.0	 86.0	 1	 86.0	 10.367;
	1330	 53.2595	 17.114	 43.774	 -9.546	 1.0	 86.0	 1	 86.0	 20.519;
	1330	 58.9985	 17.114	 43.774	 -9.546	 1.0	 86.0	 1	 86.0	 31.997;
	1332	 0.0	 0.0	 0.0	 0.0	 1.0	 1.0	 0	 1.0	 0.404;
	1332	 2.013	 0.0	 0.0	 0.0	 1.0	 2.7	 1	 2.7	 1.326;
	1332	 2.1075	 0.0	 0.0	 0.0	 1.0	 3.5	 1	 3.5	 0.715;
	1332	 17.664	 0.0	 0.0	 0.0	 1.0	 25.0	 1	 25.0	 10.328;
	1336	 88.498	 27.6705	 70.776	 -15.435	 1.0	 139.05	 1	 139.05	 37.946;
	1337	 101.1105	 27.6705	 70.776	 -15.435	 1.0	 139.05	 1	 139.05	 63.171;
	1341	 0.0	 0.0	 169.531	 -44.384	 1.0	 363.8	 0	 363.8	 134.77;
	1343	 31.949	 9.313	 23.821	 -5.195	 1.0	 46.8	 1	 46.8	 17.098;
	1345	 0.0	 0.0	 19.495	 -4.251	 1.0	 38.3	 0	 38.3	 4.815;
	1346	 0.0	 0.0	 19.495	 -4.251	 1.0	 38.3	 0	 38.3	 17.942;
	1346	 0.0	 0.0	 19.495	 -4.251	 1.0	 38.3	 0	 38.3	 17.183;
	1346	 0.0	 0.0	 19.495	 -4.251	 1.0	 38.3	 0	 38.3	 12.737;
	1348	 0.0	 0.0	 2.087	 -0.455	 1.0	 4.1	 0	 4.1	 1.28;
	1348	 0.0	 0.0	 2.087	 -0.455	 1.0	 4.1	 0	 4.1	 0.484;
	1350	 3.192	 0.0	 0.0	 0.0	 1.0	 5.1	 1	 5.1	 1.284;
	1350	 5.955	 0.0	 0.0	 0.0	 1.0	 10.0	 1	 10.0	 1.91;
	1352	 0.0	 0.0	 8.947	 -2.342	 1.0	 19.2	 0	 19.2	 3.432;
	1354	 0.0	 0.0	 13.539	 -2.953	 1.0	 26.6	 0	 26.6	 8.702;
	1356	 0.0	 0.0	 17.153	 -3.741	 1.0	 33.7	 0	 33.7	 11.2;
	1360	 287.578	 81.2085	 207.714	 -45.297	 1.0	 408.08	 1	 408.083	 167.073;
	1361	 0.0	 0.0	 207.714	 -45.297	 1.0	 408.08	 0	 408.083	 44.635;
	1362	 275.2035	 81.2085	 207.714	 -45.297	 1.0	 408.08	 1	 408.083	 142.324;
	1363	 0.0	 0.0	 207.714	 -45.297	 1.0	 408.08	 0	 408.083	 195.064;
	1364	 279.582	 81.2085	 207.714	 -45.297	 1.0	 408.08	 1	 408.083	 151.081;
	1365	 245.173	 81.2085	 207.714	 -45.297	 1.0	 408.08	 1	 408.083	 82.263;
	1370	 0.0	 0.0	 212.321	 -55.586	 1.0	 455.63	 0	 455.625	 138.412;
	1371	 0.0	 0.0	 212.321	 -55.586	 1.0	 455.63	 0	 455.625	 88.104;
	1372	 0.0	 0.0	 212.321	 -55.586	 1.0	 455.63	 0	 455.625	 105.861;
	1373	 0.0	 0.0	 212.321	 -55.586	 1.0	 455.63	 0	 455.625	 111.3;
...
];

%% generator cost data
%	2	startup	shutdown	n	c(n-1)	...	c0
mpc.gencost = [
	2	 0.0	 0.0	 3	   0.016330	  21.370000	  -2.678000;
	2	 0.0	 0.0	 3	   0.012020	  21.100000	  -2.186000;
	2	 0.0	 0.0	 3	   0.016560	  22.010000	  -2.770000;
	2	 0.0	 0.0	 3	   0.012130	  19.750000	  -2.049000;
	2	 0.0	 0.0	 3	   0.014590	  24.090000	  -2.724000;
	2	 0.0	 0.0	 3	   0.019080	  19.760000	  -2.386000;
	2	 0.0	 0.0	 3	   0.000000	  17.000000	  -1.619000;
	2	 0.0	 0.0	 3	   0.001030	   9.129000	   0.000000;
	2	 0.0	 0.0	 3	   0.001759	   8.167000	   0.000000;
	2	 0.0	 0.0	 3	   0.000000	  17.390000	   0.000000;
	2	 0.0	 0.0	 3	   0.000000	  14.990000	   0.000000;
	2	 0.0	 0.0	 3	   0.000000	  14.550000	   0.000000;
	2	 0.0	 0.0	 3	   0.000000	  14.170000	   0.000000;
	2	 0.0	 0.0	 3	   0.000000	  16.790000	   0.000000;
	2	 0.0	 0.0	 3	   0.000000	  17.210000	   0.000000;
	2	 0.0	 0.0	 3	   0.026360	  20.610000	  -2.442000;
	2	 0.0	 0.0	 3	   0.019850	  17.370000	  -2.014000;
	2	 0.0	 0.0	 3	   0.014020	  21.620000	  -2.032000;
	2	 0.0	 0.0	 3	   0.015900	  19.400000	  -2.187000;
	2	 0.0	 0.0	 3	   0.019070	  19.250000	  -2.470000;
	2	 0.0	 0.0	 3	   0.000000	  30.000000	   0.000000;
	2	 0.0	 0.0	 3	   0.000000	  30.000000	   0.000000;
	2	 0.0	 0.0	 3	   0.000000	  30.000000	   0.000000;
	2	 0.0	 0.0	 3	   0.000000	  30.000000	   0.000000;
	2	 0.0	 0.0	 3	   0.000000	  30.000000	   0.000000;
	2	 0.0	 0.0	 3	   0.000000	  30.000000	   0.000000;
	2	 0.0	 0.0	 3	   0.000000	  30.000000	   0.000000;
	2	 0.0	 0.0	 3	   0.000000	  30.000000	   0.000000;
	2	 0.0	 0.0	 3	   0.018820	  19.240000	  -1.694000;
	2	 0.0	 0.0	 3	   0.013910	  16.010000	  -1.180000;
	2	 0.0	 0.0	 3	   0.010590	  18.900000	  -1.149000;
	2	 0.0	 0.0	 3	   0.016170	  21.530000	  -1.659000;
	2	 0.0	 0.0	 3	   0.013830	  17.440000	  -1.276000;
	2	 0.0	 0.0	 3	   0.013920	  15.920000	  -1.169000;
	2	 0.0	 0.0	 3	   0.001700	   8.322000	   0.000000;
	2	 0.0	 0.0	 3	   0.001699	   8.325000	   0.000000;
	2	 0.0	 0.0	 3	   0.000000	  17.950000	   0.000000;
	2	 0.0	 0.0	 3	   0.000000	  15.700000	 -13.460000;
	2	 0.0	 0.0	 3	   0.000000	  17.590000	 -15.850000;
	2	 0.0	 0.0	 3	   0.000000	  16.800000	   0.000000;
	2	 0.0	 0.0	 3	   0.000000	  18.720000	   0.000000;
	2	 0.0	 0.0	 3	   0.000000	  15.600000	 -12.390000;
	2	 0.0	 0.0	 3	   0.014500	  14.870000	   0.000000;
	2	 0.0	 0.0	 3	   0.011840	  18.040000	  -1.020000;
	2	 0.0	 0.0	 3	   0.014490	  16.990000	   0.000000;
	2	 0.0	 0.0	 3	   0.020170	  17.960000	  -1.156000;
	2	 0.0	 0.0	 3	   0.017080	  16.480000	   0.000000;
	2	 0.0	 0.0	 3	   0.013580	  14.240000	   0.000000;
	2	 0.0	 0.0	 3	   0.020420	  25.400000	  -7.217000;
	2	 0.0	 0.0	 3	   0.020650	  22.280000	  -5.772000;
	2	 0.0	 0.0	 3	   0.011620	  29.890000	  -5.213000;
	2	 0.0	 0.0	 3	   0.026980	  23.340000	  -6.146000;
	2	 0.0	 0.0	 3	   0.020780	  17.190000	  -4.678000;
	2	 0.0	 0.0	 3	   0.019060	  26.830000	  -6.793000;
	2	 0.0	 0.0	 3	   0.000000	  30.000000	   0.000000;
	2	 0.0	 0.0	 3	   0.000000	  30.000000	   0.000000;
	2	 0.0	 0.0	 3	   0.000000	  30.000000	   0.000000;
	2	 0.0	 0.0	 3	   0.000000	  30.000000	   0.000000;
	2	 0.0	 0.0	 3	   0.000000	  30.000000	   0.000000;
	2	 0.0	 0.0	 3	   0.000000	  30.000000	   0.000000;
	2	 0.0	 0.0	 3	   0.000000	  30.000000	   0.000000;
	2	 0.0	 0.0	 3	   0.000000	  30.000000	   0.000000;
	2	 0.0	 0.0	 3	   0.000000	  30.000000	   0.000000;
	2	 0.0	 0.0	 3	   0.000000	  30.000000	   0.000000;
	2	 0.0	 0.0	 3	   0.000000	  30.000000	   0.000000;
	2	 0.0	 0.0	 3	   0.000000	  30.000000	   0.000000;
	2	 0.0	 0.0	 3	   0.018640	  19.460000	  -1.724000;
	2	 0.0	 0.0	 3	   0.020250	  21.280000	  -2.006000;
	2	 0.0	 0.0	 3	   0.000000	  15.850000	   0.000000;
	2	 0.0	 0.0	 3	   0.000000	  14.680000	   0.000000;
	2	 0.0	 0.0	 3	   0.012640	  21.190000	  -2.482000;
	2	 0.0	 0.0	 3	   0.023040	  18.720000	  -2.847000;
	2	 0.0	 0.0	 3	   0.012490	  20.530000	  -2.495000;
	2	 0.0	 0.0	 3	   0.019290	  17.330000	  -2.237000;
	2	 0.0	 0.0	 3	   0.000000	  30.000000	   0.000000;
	2	 0.0	 0.0	 3	   0.000000	  30.000000	   0.000000;
	2	 0.0	 0.0	 3	   0.000000	  30.000000	   0.000000;
	2	 0.0	 0.0	 3	   0.000000	  30.000000	   0.000000;
	2	 0.0	 0.0	 3	   0.000000	  30.000000	   0.000000;
	2	 0.0	 0.0	 3	   0.000000	  30.000000	   0.000000;
	2	 0.0	 0.0	 3	   0.000000	  24.770000	   0.000000;
	2	 0.0	 0.0	 3	   0.000000	  23.890000	   0.000000;
	2	 0.0	 0.0	 3	   0.023410	  27.190000	  -1.626000;
	2	 0.0	 0.0	 3	   0.019040	  27.540000	  -1.546000;
	2	 0.0	 0.0	 3	   0.026120	  28.970000	  -1.581000;
	2	 0.0	 0.0	 3	   0.000000	  27.490000	 -54.620000;
	2	 0.0	 0.0	 3	   0.000000	  28.490000	 -40.200000;
	2	 0.0	 0.0	 3	   0.000000	  30.000000	   0.000000;
	2	 0.0	 0.0	 3	   0.000000	  30.000000	   0.000000;
	2	 0.0	 0.0	 3	   0.000000	  30.000000	   0.000000;
	2	 0.0	 0.0	 3	   0.000000	  30.000000	   0.000000;
	2	 0.0	 0.0	 3	   0.000000	  30.000000	   0.000000;
	2	 0.0	 0.0	 3	   0.000000	  30.000000	   0.000000;
	2	 0.0	 0.0	 3	   0.027540	  26.150000	  -2.426000;
	2	 0.0	 0.0	 3	   0.033750	  29.900000	  -3.238000;
	2	 0.0	 0.0	 3	   0.030040	  32.670000	  -3.029000;
	2	 0.0	 0.0	 3	   0.028100	  29.570000	  -3.073000;
	2	 0.0	 0.0	 3	   0.029070	  33.100000	  -3.287000;
	2	 0.0	 0.0	 3	   0.000000	  26.420000	   0.000000;
	2	 0.0	 0.0	 3	   0.000000	  23.670000	   0.000000;
	2	 0.0	 0.0	 3	   0.027860	  27.390000	  -2.660000;
	2	 0.0	 0.0	 3	   0.034250	  26.960000	  -2.562000;
	2	 0.0	 0.0	 3	   0.025260	  34.170000	  -3.145000;
	2	 0.0	 0.0	 3	   0.029600	  27.690000	  -2.616000;
	2	 0.0	 0.0	 3	   0.000000	  27.640000	   0.000000;
	2	 0.0	 0.0	 3	   0.030600	  27.070000	  -1.764000;
	2	 0.0	 0.0	 3	   0.034700	  31.910000	  -2.326000;
	2	 0.0	 0.0	 3	   0.026410	  28.690000	  -2.552000;
	2	 0.0	 0.0	 3	   0.026800	  30.990000	  -4.106000;
	2	 0.0	 0.0	 3	   0.024290	  32.580000	  -4.626000;
	2	 0.0	 0.0	 3	   0.031500	  30.790000	  -4.019000;
	2	 0.0	 0.0	 3	   0.030240	  30.230000	  -4.252000;
	2	 0.0	 0.0	 3	   0.033730	  29.460000	  -4.014000;
	2	 0.0	 0.0	 3	   0.027190	  29.530000	  -4.077000;
	2	 0.0	 0.0	 3	   0.000000	  24.590000	   0.000000;
	2	 0.0	 0.0	 3	   0.064010	  39.890000	 -13.580000;
	2	 0.0	 0.0	 3	   0.075690	  39.520000	 -13.630000;
	2	 0.0	 0.0	 3	   0.018590	  30.360000	  -2.086000;
	2	 0.0	 0.0	 3	   0.019940	  29.900000	  -2.177000;
	2	 0.0	 0.0	 3	   0.026570	  25.400000	  -2.084000;
	2	 0.0	 0.0	 3	   0.026700	  30.430000	  -2.712000;
	2	 0.0	 0.0	 3	   0.000000	  27.950000	   0.000000;
	2	 0.0	 0.0	 3	   0.000000	  24.810000	  -9.402000;
	2	 0.0	 0.0	 3	   0.000000	  26.840000	  -9.579000;
	2	 0.0	 0.0	 3	   0.029000	  26.400000	  -2.688000;
	2	 0.0	 0.0	 3	   0.023990	  29.870000	  -3.309000;
	2	 0.0	 0.0	 3	   0.021510	  32.620000	  -3.169000;
	2	 0.0	 0.0	 3	   0.018140	  33.130000	  -2.925000;
	2	 0.0	 0.0	 3	   0.029630	  28.730000	  -3.319000;
	2	 0.0	 0.0	 3	   0.019670	  35.420000	  -2.741000;
	2	 0.0	 0.0	 3	   0.019490	  29.910000	  -2.624000;
	2	 0.0	 0.0	 3	   0.028880	  34.360000	  -3.224000;
	2	 0.0	 0.0	 3	   0.025300	  36.570000	  -4.649000;
	2	 0.0	 0.0	 3	   0.021940	  39.920000	  -4.583000;
	2	 0.0	 0.0	 3	   0.022130	  31.190000	  -3.989000;
	2	 0.0	 0.0	 3	   0.021080	  33.810000	  -4.054000;
	2	 0.0	 0.0	 3	   0.000000	  24.640000	   0.000000;
	2	 0.0	 0.0	 3	   0.000000	  27.900000	   0.000000;
	2	 0.0	 0.0	 3	   0.000000	  28.820000	   0.000000;
	2	 0.0	 0.0	 3	   0.000000	  28.220000	 -20.920000;
	2	 0.0	 0.0	 3	   0.000000	  29.390000	 -33.230000;
	2	 0.0	 0.0	 3	   0.000000	  22.690000	   0.000000;
	2	 0.0	 0.0	 3	   0.035560	  30.220000	  -3.324000;
	2	 0.0	 0.0	 3	   0.034520	  29.800000	  -3.435000;
	2	 0.0	 0.0	 3	   0.022020	  28.880000	  -2.864000;
	2	 0.0	 0.0	 3	   0.022020	  28.750000	  -2.089000;
	2	 0.0	 0.0	 3	   0.028370	  27.650000	  -2.337000;
	2	 0.0	 0.0	 3	   0.020730	  30.250000	  -2.185000;
	2	 0.0	 0.0	 3	   0.030270	  26.810000	  -1.859000;
	2	 0.0	 0.0	 3	   0.000000	  30.000000	   0.000000;
	2	 0.0	 0.0	 3	   0.000000	  30.000000	   0.000000;
	2	 0.0	 0.0	 3	   0.000000	  30.000000	   0.000000;
	2	 0.0	 0.0	 3	   0.000000	  30.000000	   0.000000;
	2	 0.0	 0.0	 3	   0.000000	  30.000000	   0.000000;
	2	 0.0	 0.0	 3	   0.000000	  30.000000	   0.000000;
	2	 0.0	 0.0	 3	   0.000000	  30.000000	   0.000000;
	2	 0.0	 0.0	 3	   0.000000	  30.000000	   0.000000;
	2	 0.0	 0.0	 3	   0.000000	  30.000000	   0.000000;
	2	 0.0	 0.0	 3	   0.000000	  30.000000	   0.000000;
	2	 0.0	 0.0	 3	   0.034270	  27.540000	  -2.959000;
	2	 0.0	 0.0	 3	   0.022210	  30.390000	  -2.577000;
	2	 0.0	 0.0	 3	   0.025580	  29.290000	  -2.630000;
	2	 0.0	 0.0	 3	   0.000000	  30.000000	   0.000000;
	2	 0.0	 0.0	 3	   0.000000	  30.000000	   0.000000;
	2	 0.0	 0.0	 3	   0.000000	  30.000000	   0.000000;
	2	 0.0	 0.0	 3	   0.000000	  30.000000	   0.000000;
	2	 0.0	 0.0	 3	   0.000000	  30.000000	   0.000000;
	2	 0.0	 0.0	 3	   0.000000	  30.000000	   0.000000;
	2	 0.0	 0.0	 3	   0.000000	  28.390000	 -33.640000;
	2	 0.0	 0.0	 3	   0.000000	  28.910000	 -49.180000;
	2	 0.0	 0.0	 3	   0.000000	  29.590000	 -53.360000;
	2	 0.0	 0.0	 3	   0.000000	   0.000000	   0.000000;
	2	 0.0	 0.0	 3	   0.000000	   0.000000	   0.000000;
	2	 0.0	 0.0	 3	   0.000000	   0.000000	   0.000000;
	2	 0.0	 0.0	 3	   0.000000	   0.000000	   0.000000;
	2	 0.0	 0.0	 3	   0.020750	  26.750000	  -1.370000;
	2	 0.0	 0.0	 3	   0.016860	  30.820000	  -1.447000;
	2	 0.0	 0.0	 3	   0.057680	  46.130000	 -11.660000;
	2	 0.0	 0.0	 3	   0.000000	  25.330000	 -12.060000;
	2	 0.0	 0.0	 3	   0.000000	  25.660000	  -4.680000;
	2	 0.0	 0.0	 3	   0.000000	  24.700000	   0.000000;
	2	 0.0	 0.0	 3	   0.000000	  26.630000	   0.000000;
	2	 0.0	 0.0	 3	   0.000000	  27.190000	  -6.785000;
	2	 0.0	 0.0	 3	   0.000000	  24.980000	   0.000000;
	2	 0.0	 0.0	 3	   0.000000	  26.850000	   0.000000;
	2	 0.0	 0.0	 3	   0.000000	   0.000000	   0.000000;
	2	 0.0	 0.0	 3	   0.000000	   0.000000	   0.000000;
	2	 0.0	 0.0	 3	   0.000000	  30.000000	   0.000000;
	2	 0.0	 0.0	 3	   0.000000	  24.290000	  -3.684000;
	2	 0.0	 0.0	 3	   0.000000	  27.130000	  -6.071000;
	2	 0.0	 0.0	 3	   0.026950	  39.130000	  -6.398000;
	2	 0.0	 0.0	 3	   0.039770	  30.070000	  -5.243000;
	2	 0.0	 0.0	 3	   0.028930	  34.570000	  -6.352000;
	2	 0.0	 0.0	 3	   0.023620	  40.790000	  -6.121000;
	2	 0.0	 0.0	 3	   0.027950	  37.180000	  -6.334000;
	2	 0.0	 0.0	 3	   0.031930	  29.680000	  -5.362000;
	2	 0.0	 0.0	 3	   0.076050	  51.290000	 -17.350000;
	2	 0.0	 0.0	 3	   0.082770	  40.290000	 -15.230000;
	2	 0.0	 0.0	 3	   0.071450	  38.330000	 -14.300000;
	2	 0.0	 0.0	 3	   0.067630	  41.080000	 -13.860000;
...
];

%% branch data
%	fbus	tbus	r	x	b	rateA	rateB	rateC	ratio	angle	status	angmin	angmax
mpc.branch = [
	1	 3	 0.00023182	 0.00102493	 0.0	 99999.0	 99999.0	 99999.0	 0.0	 0.0	 1	 -30.0	 30.0;
	1	 28	 0.00413857	 0.0270728	 0.00746341	 219.62	 219.62	 219.62	 0.0	 0.0	 1	 -30.0	 30.0;
	1	 174	 0.00529188	 0.0209981	 0.0166533	 241.75	 241.75	 241.75	 0.0	 0.0	 1	 -30.0	 30.0;
	1	 174	 0.00529188	 0.0209981	 0.0166533	 241.75	 241.75	 241.75	 0.0	 0.0	 1	 -30.0	 30.0;
	1	 247	 0.00712647	 0.0357571	 0.00985329	 265.68	 265.68	 265.68	 0.0	 0.0	 1	 -30.0	 30.0;
	1	 248	 0.00369663	 0.021138	 0.0100986	 243.83	 243.83	 243.83	 0.0	 0.0	 1	 -30.0	 30.0;
	2	 23	 0.0104592	 0.0332497	 0.00196885	 79.04	 79.04	 79.04	 0.0	 0.0	 1	 -30.0	 30.0;
	2	 23	 0.0104592	 0.0332497	 0.00196885	 79.04	 79.04	 79.04	 0.0	 0.0	 1	 -30.0	 30.0;
	2	 23	 0.0104592	 0.0332497	 0.00196885	 79.04	 79.04	 79.04	 0.0	 0.0	 0	 -30.0	 30.0;
	4	 128	 0.0132902	 0.0268195	 0.00578327	 64.44	 64.44	 64.44	 0.0	 0.0	 1	 -30.0	 30.0;
	4	 164	 0.0219322	 0.0591199	 0.0121884	 52.0	 52.0	 52.0	 0.0	 0.0	 1	 -30.0	 30.0;
	5	 4	 0.0108814	 0.0309317	 0.0010461	 80.95	 80.95	 80.95	 0.0	 0.0	 1	 -30.0	 30.0;
	5	 10	 0.00934009	 0.0255526	 0.00609131	 108.59	 108.59	 108.59	 0.0	 0.0	 1	 -30.0	 30.0;
	6	 13	 0.0134592	 0.0297145	 0.0015211	 65.19	 65.19	 65.19	 0.0	 0.0	 1	 -30.0	 30.0;
	6	 13	 0.0134592	 0.0297145	 0.0015211	 65.19	 65.19	 65.19	 0.0	 0.0	 1	 -30.0	 30.0;
	6	 43	 0.0177663	 0.0495402	 0.00459009	 81.61	 81.61	 81.61	 0.0	 0.0	 1	 -30.0	 30.0;
	6	 43	 0.0177663	 0.0495402	 0.00459009	 81.61	 81.61	 81.61	 0.0	 0.0	 1	 -30.0	 30.0;
	6	 43	 0.0177663	 0.0495402	 0.00459009	 81.61	 81.61	 81.61	 0.0	 0.0	 1	 -30.0	 30.0;
	7	 86	 0.00434889	 0.0146316	 0.0344193	 256.34	 256.34	 256.34	 0.0	 0.0	 1	 -30.0	 30.0;
	7	 86	 0.00434889	 0.0146316	 0.0344193	 256.34	 256.34	 256.34	 0.0	 0.0	 1	 -30.0	 30.0;
	7	 86	 0.00434889	 0.0146316	 0.0344193	 256.34	 256.34	 256.34	 0.0	 0.0	 1	 -30.0	 30.0;
	8	 214	 0.0177395	 0.0479832	 0.00111804	 105.16	 105.16	 105.16	 0.0	 0.0	 1	 -30.0	 30.0;
	9	 7	 0.00214021	 0.0150334	 0.0121318	 319.17	 319.17	 319.17	 0.0	 0.0	 1	 -30.0	 30.0;
	9	 11	 0.000211449	 0.00119004	 0.0	 99999.0	 99999.0	 99999.0	 0.0	 0.0	 1	 -30.0	 30.0;
	9	 208	 0.00444784	 0.0271527	 0.0302679	 318.16	 318.16	 318.16	 0.0	 0.0	 0	 -30.0	 30.0;
	10	 6	 0.0170262	 0.0421583	 0.00119287	 86.29	 86.29	 86.29	 0.0	 0.0	 1	 -30.0	 30.0;
	12	 14	 0.000238768	 0.00116074	 0.0	 99999.0	 99999.0	 99999.0	 0.0	 0.0	 1	 -30.0	 30.0;
	13	 8	 0.0165507	 0.0426667	 0.00366785	 133.11	 133.11	 133.11	 0.0	 0.0	 1	 -30.0	 30.0;
	13	 17	 0.0320514	 0.0754904	 0.00235805	 82.53	 82.53	 82.53	 0.0	 0.0	 1	 -30.0	 30.0;
	13	 187	 0.0069238	 0.0171061	 0.00801142	 79.4	 79.4	 79.4	 0.0	 0.0	 1	 -30.0	 30.0;
	14	 9	 0.00364564	 0.0218068	 0.0060302	 172.04	 172.04	 172.04	 0.0	 0.0	 1	 -30.0	 30.0;
	15	 151	 0.00171507	 0.0115251	 0.0086048	 286.2	 286.2	 286.2	 0.0	 0.0	 1	 -30.0	 30.0;
	15	 211	 0.00192474	 0.0105067	 0.00425216	 280.32	 280.32	 280.32	 0.0	 0.0	 1	 -30.0	 30.0;
	15	 232	 0.0046	 0.029799	 0.0212613	 280.54	 280.54	 280.54	 0.0	 0.0	 1	 -30.0	 30.0;
	15	 232	 0.0046	 0.029799	 0.0212613	 321.13	 321.13	 321.13	 0.0	 0.0	 1	 -30.0	 30.0;
	16	 21	 0.011558	 0.0357297	 0.00234347	 105.45	 105.45	 105.45	 0.0	 0.0	 1	 -30.0	 30.0;
	16	 35	 0.00813416	 0.0195601	 0.00218755	 92.42	 92.42	 92.42	 0.0	 0.0	 1	 -30.0	 30.0;
	16	 37	 0.0129734	 0.0401236	 0.000641011	 73.63	 73.63	 73.63	 0.0	 0.0	 1	 -30.0	 30.0;
	17	 43	 0.0167472	 0.042412	 0.00168994	 99.4	 99.4	 99.4	 0.0	 0.0	 1	 -30.0	 30.0;
	18	 19	 0.000249168	 0.00107953	 0.0	 99999.0	 99999.0	 99999.0	 0.0	 0.0	 1	 -30.0	 30.0;
	18	 187	 0.018127	 0.0528191	 0.00213896	 73.01	 73.01	 73.01	 0.0	 0.0	 1	 -30.0	 30.0;
	18	 187	 0.018127	 0.0528191	 0.00213896	 82.62	 82.62	 82.62	 0.0	 0.0	 1	 -30.0	 30.0;
	20	 22	 0.000219564	 0.00118149	 0.0	 99999.0	 99999.0	 99999.0	 0.0	 0.0	 1	 -30.0	 30.0;
	21	 38	 0.0228097	 0.052298	 0.00200842	 68.0	 68.0	 68.0	 0.0	 0.0	 1	 -30.0	 30.0;
	21	 38	 0.0228097	 0.052298	 0.00200842	 68.0	 68.0	 68.0	 0.0	 0.0	 1	 -30.0	 30.0;
	22	 34	 0.00459707	 0.0237513	 0.0317594	 215.75	 215.75	 215.75	 0.0	 0.0	 1	 -30.0	 30.0;
	22	 86	 0.0024419	 0.0144345	 0.00822082	 267.98	 267.98	 267.98	 0.0	 0.0	 1	 -30.0	 30.0;
	22	 215	 0.00318566	 0.01486	 0.0134473	 258.04	 258.04	 258.04	 0.0	 0.0	 1	 -30.0	 30.0;
	22	 215	 0.00318566	 0.01486	 0.0134473	 258.04	 258.04	 258.04	 0.0	 0.0	 1	 -30.0	 30.0;
	22	 215	 0.00318566	 0.01486	 0.0134473	 258.04	 258.04	 258.04	 0.0	 0.0	 1	 -30.0	 30.0;
	22	 548	 0.00620426	 0.0329366	 0.0176561	 258.61	 258.61	 258.61	 0.0	 0.0	 1	 -30.0	 30.0;
	22	 548	 0.00620426	 0.0329366	 0.0176561	 258.61	 258.61	 258.61	 0.0	 0.0	 1	 -30.0	 30.0;
	22	 548	 0.00620426	 0.0329366	 0.0176561	 258.61	 258.61	 258.61	 0.0	 0.0	 1	 -30.0	 30.0;
	23	 177	 0.0167668	 0.0454559	 0.00130041	 75.07	 75.07	 75.07	 0.0	 0.0	 1	 -30.0	 30.0;
	24	 16	 0.0118471	 0.0318563	 0.00208615	 99.33	 99.33	 99.33	 0.0	 0.0	 1	 -30.0	 30.0;
	24	 25	 0.000264528	 0.00110156	 0.0	 99999.0	 99999.0	 99999.0	 0.0	 0.0	 1	 -30.0	 30.0;
	24	 41	 0.015854	 0.041633	 0.00114618	 67.07	 67.07	 67.07	 0.0	 0.0	 1	 -30.0	 30.0;
	24	 41	 0.015854	 0.041633	 0.00114618	 67.07	 67.07	 67.07	 0.0	 0.0	 1	 -30.0	 30.0;
	26	 28	 0.000288654	 0.00112215	 0.0	 99999.0	 99999.0	 99999.0	 0.0	 0.0	 1	 -30.0	 30.0;
	27	 23	 0.0127749	 0.0299585	 0.00159547	 59.21	 59.21	 59.21	 0.0	 0.0	 1	 -30.0	 30.0;
	27	 177	 0.0148095	 0.0384174	 0.00194579	 76.41	 76.41	 76.41	 0.0	 0.0	 1	 -30.0	 30.0;
	27	 219	 0.0146725	 0.0356523	 0.000881023	 55.36	 55.36	 55.36	 0.0	 0.0	 1	 -30.0	 30.0;
	28	 165	 0.00356549	 0.0232361	 0.00589297	 350.0	 350.0	 350.0	 0.0	 0.0	 1	 -30.0	 30.0;
	28	 174	 0.00146485	 0.0101278	 0.00457715	 241.31	 241.31	 241.31	 0.0	 0.0	 1	 -30.0	 30.0;
	28	 555	 0.00683845	 0.0343749	 0.0208829	 322.49	 322.49	 322.49	 0.0	 0.0	 0	 -30.0	 30.0;
	29	 252	 0.0190813	 0.056663	 0.00108459	 60.63	 60.63	 60.63	 0.0	 0.0	 1	 -30.0	 30.0;
	29	 267	 0.0244295	 0.0641456	 0.00258533	 81.86	 81.86	 81.86	 0.0	 0.0	 1	 -30.0	 30.0;
	29	 557	 0.00231061	 0.00635728	 0.000323514	 96.22	 96.22	 96.22	 0.0	 0.0	 1	 -30.0	 30.0;
	29	 557	 0.00231061	 0.00635728	 0.000323514	 109.17	 109.17	 109.17	 0.0	 0.0	 1	 -30.0	 30.0;
	30	 31	 0.0017784	 0.0116988	 0.00650237	 191.0	 191.0	 191.0	 0.0	 0.0	 1	 -30.0	 30.0;
	31	 33	 0.000274453	 0.00119906	 0.0	 99999.0	 99999.0	 99999.0	 0.0	 0.0	 1	 -30.0	 30.0;
	31	 42	 0.00623491	 0.0279952	 0.00721758	 229.38	 229.38	 229.38	 0.0	 0.0	 1	 -30.0	 30.0;
	32	 17	 0.0264094	 0.065065	 0.0020865	 68.42	 68.42	 68.42	 0.0	 0.0	 1	 -30.0	 30.0;
	32	 17	 0.0264094	 0.065065	 0.0020865	 68.42	 68.42	 68.42	 0.0	 0.0	 1	 -30.0	 30.0;
	32	 283	 0.0142241	 0.0432463	 0.00220303	 67.66	 67.66	 67.66	 0.0	 0.0	 1	 -30.0	 30.0;
	32	 283	 0.0142241	 0.0432463	 0.00220303	 67.66	 67.66	 67.66	 0.0	 0.0	 1	 -30.0	 30.0;
	34	 31	 0.003786	 0.0214023	 0.00785309	 232.2	 232.2	 232.2	 0.0	 0.0	 1	 -30.0	 30.0;
	34	 31	 0.003786	 0.0214023	 0.00785309	 232.2	 232.2	 232.2	 0.0	 0.0	 1	 -30.0	 30.0;
	34	 39	 0.00416941	 0.0265708	 0.00900656	 241.19	 241.19	 241.19	 0.0	 0.0	 1	 -30.0	 30.0;
	34	 39	 0.00416941	 0.0265708	 0.00900656	 241.19	 241.19	 241.19	 0.0	 0.0	 1	 -30.0	 30.0;
	34	 564	 0.00581665	 0.0316411	 0.00756963	 215.42	 215.42	 215.42	 0.0	 0.0	 1	 -30.0	 30.0;
	35	 238	 0.0300367	 0.0904545	 0.00848998	 62.8	 62.8	 62.8	 0.0	 0.0	 1	 -30.0	 30.0;
	35	 557	 0.0312946	 0.0706114	 0.00282773	 76.09	 76.09	 76.09	 0.0	 0.0	 1	 -30.0	 30.0;
	35	 557	 0.0312946	 0.0706114	 0.00282773	 76.09	 76.09	 76.09	 0.0	 0.0	 1	 -30.0	 30.0;
	35	 557	 0.0312946	 0.0706114	 0.00282773	 76.09	 76.09	 76.09	 0.0	 0.0	 1	 -30.0	 30.0;
	36	 35	 0.0265135	 0.047453	 0.00141328	 68.8	 68.8	 68.8	 0.0	 0.0	 1	 -30.0	 30.0;
	36	 35	 0.0265135	 0.047453	 0.00141328	 68.8	 68.8	 68.8	 0.0	 0.0	 1	 -30.0	 30.0;
	36	 245	 0.0293616	 0.0673862	 0.0011626	 49.63	 49.63	 49.63	 0.0	 0.0	 1	 -30.0	 30.0;
	36	 249	 0.00801014	 0.0261499	 0.00092202	 75.41	 75.41	 75.41	 0.0	 0.0	 1	 -30.0	 30.0;
	36	 249	 0.00801014	 0.0261499	 0.00092202	 75.41	 75.41	 75.41	 0.0	 0.0	 1	 -30.0	 30.0;
	36	 249	 0.00801014	 0.0261499	 0.00092202	 75.41	 75.41	 75.41	 0.0	 0.0	 1	 -30.0	 30.0;
	36	 557	 0.0164183	 0.0420729	 0.0024045	 101.25	 101.25	 101.25	 0.0	 0.0	 1	 -30.0	 30.0;
	37	 21	 0.0161314	 0.0299526	 0.00131014	 73.06	 73.06	 73.06	 0.0	 0.0	 1	 -30.0	 30.0;
	37	 35	 0.0126768	 0.0268139	 0.00271526	 77.95	 77.95	 77.95	 0.0	 0.0	 1	 -30.0	 30.0;
	37	 35	 0.0126768	 0.0268139	 0.00271526	 77.95	 77.95	 77.95	 0.0	 0.0	 1	 -30.0	 30.0;
	37	 35	 0.0126768	 0.0268139	 0.00271526	 77.95	 77.95	 77.95	 0.0	 0.0	 1	 -30.0	 30.0;
	37	 38	 0.0187055	 0.0608938	 0.00196692	 68.2	 68.2	 68.2	 0.0	 0.0	 1	 -30.0	 30.0;
	37	 38	 0.0187055	 0.0608938	 0.00196692	 68.2	 68.2	 68.2	 0.0	 0.0	 1	 -30.0	 30.0;
	37	 87	 0.0221178	 0.0564016	 0.00139673	 86.12	 86.12	 86.12	 0.0	 0.0	 1	 -30.0	 30.0;
	38	 173	 0.0177711	 0.0570116	 0.00116236	 92.96	 92.96	 92.96	 0.0	 0.0	 1	 -30.0	 30.0;
	40	 263	 0.0271487	 0.0714019	 0.00446768	 55.15	 55.15	 55.15	 0.0	 0.0	 1	 -30.0	 30.0;
	40	 276	 0.0226872	 0.0486309	 0.000835191	 72.1	 72.1	 72.1	 0.0	 0.0	 1	 -30.0	 30.0;
	40	 276	 0.0226872	 0.0486309	 0.000835191	 72.1	 72.1	 72.1	 0.0	 0.0	 1	 -30.0	 30.0;
	42	 14	 0.00495081	 0.0249773	 0.0106939	 198.72	 198.72	 198.72	 0.0	 0.0	 1	 -30.0	 30.0;
	42	 44	 0.000209978	 0.00108899	 0.0	 99999.0	 99999.0	 99999.0	 0.0	 0.0	 1	 -30.0	 30.0;
	43	 46	 0.0241647	 0.0448606	 0.00129086	 89.95	 89.95	 89.95	 0.0	 0.0	 1	 -30.0	 30.0;
	45	 46	 0.0251788	 0.0603475	 0.00162961	 107.1	 107.1	 107.1	 0.0	 0.0	 1	 -30.0	 30.0;
	45	 275	 0.0163836	 0.035907	 0.00183584	 66.64	 66.64	 66.64	 0.0	 0.0	 1	 -30.0	 30.0;
	46	 209	 0.0238416	 0.0619123	 0.0025303	 76.82	 76.82	 76.82	 0.0	 0.0	 1	 -30.0	 30.0;
	47	 50	 0.000237887	 0.00109477	 0.0	 99999.0	 99999.0	 99999.0	 0.0	 0.0	 1	 -30.0	 30.0;
	47	 524	 0.000539494	 0.00584139	 0.118909	 1062.02	 1062.02	 1062.02	 0.0	 0.0	 1	 -30.0	 30.0;
	48	 73	 0.0147435	 0.0749894	 0.0160216	 226.94	 226.94	 226.94	 0.0	 0.0	 1	 -30.0	 30.0;
	48	 534	 0.00216759	 0.0137543	 0.0523514	 269.8	 269.8	 269.8	 0.0	 0.0	 1	 -30.0	 30.0;
	48	 534	 0.00216759	 0.0137543	 0.0523514	 269.8	 269.8	 269.8	 0.0	 0.0	 1	 -30.0	 30.0;
	48	 534	 0.00216759	 0.0137543	 0.0523514	 269.8	 269.8	 269.8	 0.0	 0.0	 1	 -30.0	 30.0;
	49	 60	 0.0218319	 0.051633	 0.00357013	 71.51	 71.51	 71.51	 0.0	 0.0	 1	 -30.0	 30.0;
	51	 61	 0.0394089	 0.115713	 0.0202389	 110.0	 110.0	 110.0	 0.0	 0.0	 1	 -30.0	 30.0;
	51	 200	 0.0312098	 0.0713229	 0.00237936	 112.35	 112.35	 112.35	 0.0	 0.0	 1	 -30.0	 30.0;
	52	 54	 0.000204513	 0.00101533	 0.0	 99999.0	 99999.0	 99999.0	 0.0	 0.0	 1	 -30.0	 30.0;
	52	 159	 0.000268521	 0.00355215	 0.0808721	 1160.4	 1160.4	 1160.4	 0.0	 0.0	 1	 -30.0	 30.0;
	53	 158	 0.00438862	 0.024717	 0.00913984	 247.5	 247.5	 247.5	 0.0	 0.0	 1	 -30.0	 30.0;
	53	 193	 0.00421062	 0.0273134	 0.0266542	 259.13	 259.13	 259.13	 0.0	 0.0	 1	 -30.0	 30.0;
	53	 193	 0.00421062	 0.0273134	 0.0266542	 259.13	 259.13	 259.13	 0.0	 0.0	 1	 -30.0	 30.0;
	53	 193	 0.00421062	 0.0273134	 0.0266542	 259.13	 259.13	 259.13	 0.0	 0.0	 1	 -30.0	 30.0;
	53	 521	 0.00640328	 0.0509321	 0.00899089	 295.34	 295.34	 295.34	 0.0	 0.0	 1	 -30.0	 30.0;
	53	 521	 0.00640328	 0.0509321	 0.00899089	 295.34	 295.34	 295.34	 0.0	 0.0	 1	 -30.0	 30.0;
	55	 48	 0.0054273	 0.0328757	 0.0133538	 200.97	 200.97	 200.97	 0.0	 0.0	 1	 -30.0	 30.0;
	55	 53	 0.00501826	 0.0245394	 0.0149817	 287.21	 287.21	 287.21	 0.0	 0.0	 1	 -30.0	 30.0;
	55	 53	 0.00501826	 0.0245394	 0.0149817	 287.21	 287.21	 287.21	 0.0	 0.0	 1	 -30.0	 30.0;
	55	 53	 0.00501826	 0.0245394	 0.0149817	 287.21	 287.21	 287.21	 0.0	 0.0	 1	 -30.0	 30.0;
	55	 57	 0.000297933	 0.00100615	 0.0	 99999.0	 99999.0	 99999.0	 0.0	 0.0	 1	 -30.0	 30.0;
	55	 521	 0.0060725	 0.0302758	 0.0132185	 226.91	 226.91	 226.91	 0.0	 0.0	 1	 -30.0	 30.0;
	55	 534	 0.00415165	 0.0209214	 0.0199132	 278.07	 278.07	 278.07	 0.0	 0.0	 1	 -30.0	 30.0;
	55	 534	 0.00415165	 0.0209214	 0.0199132	 278.07	 278.07	 278.07	 0.0	 0.0	 1	 -30.0	 30.0;
	55	 534	 0.00415165	 0.0209214	 0.0199132	 278.07	 278.07	 278.07	 0.0	 0.0	 1	 -30.0	 30.0;
	55	 538	 0.0124503	 0.0306121	 0.0100872	 241.11	 241.11	 241.11	 0.0	 0.0	 1	 -30.0	 30.0;
	55	 538	 0.0124503	 0.0306121	 0.0100872	 241.11	 241.11	 241.11	 0.0	 0.0	 1	 -30.0	 30.0;
	58	 56	 0.0232941	 0.04945	 0.00381086	 81.24	 81.24	 81.24	 0.0	 0.0	 1	 -30.0	 30.0;
	58	 56	 0.0232941	 0.04945	 0.00381086	 81.24	 81.24	 81.24	 0.0	 0.0	 1	 -30.0	 30.0;
	58	 56	 0.0232941	 0.04945	 0.00381086	 81.24	 81.24	 81.24	 0.0	 0.0	 1	 -30.0	 30.0;
	59	 528	 0.0218772	 0.0556881	 0.00172262	 73.29	 73.29	 73.29	 0.0	 0.0	 1	 -30.0	 30.0;
	59	 528	 0.0218772	 0.0556881	 0.00172262	 80.37	 80.37	 80.37	 0.0	 0.0	 1	 -30.0	 30.0;
	60	 59	 0.0260598	 0.0575497	 0.00437377	 65.99	 65.99	 65.99	 0.0	 0.0	 1	 -30.0	 30.0;
	60	 59	 0.0260598	 0.0575497	 0.00437377	 65.99	 65.99	 65.99	 0.0	 0.0	 1	 -30.0	 30.0;
	60	 66	 0.0716723	 0.182181	 0.0051759	 70.21	 70.21	 70.21	 0.0	 0.0	 1	 -30.0	 30.0;
	63	 65	 0.000239799	 0.0010442	 0.0	 99999.0	 99999.0	 99999.0	 0.0	 0.0	 1	 -30.0	 30.0;
	63	 73	 0.00899317	 0.0441317	 0.021161	 204.65	 204.65	 204.65	 0.0	 0.0	 1	 -30.0	 30.0;
	64	 61	 0.0247274	 0.0504625	 0.00389364	 69.75	 69.75	 69.75	 0.0	 0.0	 1	 -30.0	 30.0;
	64	 62	 0.0185909	 0.0516831	 0.00336356	 49.99	 49.99	 49.99	 0.0	 0.0	 1	 -30.0	 30.0;
	66	 70	 0.0775854	 0.186854	 0.00374987	 55.84	 55.84	 55.84	 0.0	 0.0	 1	 -30.0	 30.0;
	67	 69	 0.000247637	 0.00109325	 0.0	 99999.0	 99999.0	 99999.0	 0.0	 0.0	 1	 -30.0	 30.0;
	67	 71	 0.01	 0.07	 0.0	 220.0	 220.0	 220.0	 0.0	 0.0	 1	 -30.0	 30.0;
	67	 84	 0.0174435	 0.0973726	 0.062295	 193.76	 193.76	 193.76	 0.0	 0.0	 1	 -30.0	 30.0;
	68	 114	 0.0576338	 0.0976108	 0.00478169	 50.8	 50.8	 50.8	 0.0	 0.0	 1	 -30.0	 30.0;
	68	 540	 0.140015	 0.345219	 0.0176072	 49.46	 49.46	 49.46	 0.0	 0.0	 1	 -30.0	 30.0;
	70	 68	 0.295903	 0.4766	 0.0102401	 66.17	 66.17	 66.17	 0.0	 0.0	 1	 -30.0	 30.0;
	70	 68	 0.295903	 0.4766	 0.0102401	 66.17	 66.17	 66.17	 0.0	 0.0	 1	 -30.0	 30.0;
	71	 73	 0.000258197	 0.00116176	 0.0	 99999.0	 99999.0	 99999.0	 0.0	 0.0	 1	 -30.0	 30.0;
	72	 62	 0.0615458	 0.136756	 0.00335725	 68.81	 68.81	 68.81	 0.0	 0.0	 1	 -30.0	 30.0;
	72	 70	 0.0432172	 0.104951	 0.00449017	 65.12	 65.12	 65.12	 0.0	 0.0	 1	 -30.0	 30.0;
	74	 75	 0.0157799	 0.0362398	 0.00373355	 44.56	 44.56	 44.56	 0.0	 0.0	 1	 -30.0	 30.0;
	75	 77	 0.0160396	 0.051732	 0.00218375	 47.39	 47.39	 47.39	 0.0	 0.0	 1	 -30.0	 30.0;
	76	 78	 0.000244189	 0.00106703	 0.0	 99999.0	 99999.0	 99999.0	 0.0	 0.0	 1	 -30.0	 30.0;
	77	 80	 0.106385	 0.288295	 0.0321868	 43.17	 43.17	 43.17	 0.0	 0.0	 1	 -30.0	 30.0;
	79	 81	 0.000291143	 0.00109582	 0.0	 99999.0	 99999.0	 99999.0	 0.0	 0.0	 1	 -30.0	 30.0;
...